LAMMPS (20 Nov 2019)
# 3d Lennard-Jones melt

suffix demo5
suffix on

variable	x index 1
variable	y index 1
variable	z index 1

variable	xx equal 20*$x
variable	xx equal 20*1
variable	yy equal 20*$y
variable	yy equal 20*1
variable	zz equal 20*$z
variable	zz equal 20*1

units		lj
atom_style	atomic

lattice		fcc 0.8442
Lattice spacing in x,y,z = 1.6796 1.6796 1.6796
region		box block 0 20 0 20 0 20
create_box	1 box
Created orthogonal box = (0 0 0) to (33.5919 33.5919 33.5919)
create_atoms	1 box
Created 32000 atoms
mass		1 1.0

velocity	all create 1.44 87287 loop geom

pair_style	lj/cut 4.0
pair_coeff	1 1 1.0 1.0 4.0

neighbor	0.3 bin
neigh_modify	delay 4 every 2 check yes

fix		1 all nve

thermo          100

run		1000
  update every 2 steps, delay 4 steps, check yes
Step Temp E_pair E_mol TotEng Press
0         1.44   -7.1092599            0   -4.9493274    -5.585865
Averages over the last 6 of 11 rows, steps 500 to 1000:
Temp E_pair E_mol TotEng Press
0.718918 -6.02824 0 -4.9499 0.039662
Loop time of 73.5893 on 1 procs for 1000 steps with 32000 atoms
